/*--------------------------------*- C++ -*----------------------------------*\
| =========                 |                                                 |
| \\      /  F ield         | OpenFOAM: The Open Source CFD Toolbox           |
|  \\    /   O peration     | Version:  1.6                                   |
|   \\  /    A nd           | Web:      http://www.OpenFOAM.org               |
|    \\/     M anipulation  |                                                 |
\*---------------------------------------------------------------------------*/
FoamFile
{
    version     2.0;
    format      ascii;
    class       dictionary;
    object      turbineProperties;
}
// * * * * * * * * * * * * * * * * * * * * * * * * * * * * * * * * * * * * * //

globalProperties
{
    outputControl       "runTime";
    outputInterval       10;
}


// Southern turbine, 1.5D from center axis
turbine0
{
    turbineType         "NREL5MWRef";
    baseLocation         (1244.083 1061.262 0.0);
    nRadial              40;  // 64;  // Number of actuator pts in the radial dir from root to tip
    azimuthMaxDis        2.0;  // Maximum length in azimuth direction of an actuator element
    nAvgSector           1;
    pointDistType       "uniform";
    pointInterpType     "linear";
    bladeUpdateType     "oldPosition";
    epsilon              20.0;  // About twice the cell size
    forceScalar          1.0;
    inflowVelocityScalar 0.94;
    tipRootLossCorrType "Glauert";
    rotationDir         "cw";
    Azimuth              0.0;
    RotSpeed             9.15519863;
    TorqueGen            0.0;
    Pitch                0.0;
    NacYaw               240.0;
    fluidDensity         1.225;
}

// Northern turbine parallel to turbine0, 1.5D from center axis
turbine1
{
    turbineType         "NREL5MWRef";
    baseLocation         (992.083 1497.738 0.0);
    nRadial              40;  // 64;  // Number of actuator pts in the radial dir from root to tip
    azimuthMaxDis        2.0;  // Maximum length in azimuth direction of an actuator element
    nAvgSector           1;
    pointDistType       "uniform";
    pointInterpType     "linear";
    bladeUpdateType     "oldPosition";
    epsilon              20.0;  // About twice the cell size
    forceScalar          1.0;
    inflowVelocityScalar 0.94;
    tipRootLossCorrType "Glauert";
    rotationDir         "cw";
    Azimuth              0.0;
    RotSpeed             9.15519863;
    TorqueGen            0.0;
    Pitch                0.0;
    NacYaw               240.0;
    fluidDensity         1.225;
}

//turbine1  // 2nd turbine behind turbine0
//{
//    turbineType         "NREL5MWRef";
//    baseLocation        (1881.9 1702.5 0.0); //1000.0 1500.0 0.0);
//    numBladePoints      40;
//    pointDistType       "uniform";
//    pointInterpType     "linear";
//    bladeUpdateType     "oldPosition";
//    epsilon              5.0; // Twice cell size
//    tipRootLossCorrType "Glauert";
//    rotationDir         "cw";
//    Azimuth              0.0;
//    RotSpeed            9.1552;
//    TorqueGen            0.0;
//    Pitch                0.0;
//    NacYaw              240; //270.0;
//    fluidDensity        1.225;
//}
