/*---------------------------------------------------------------------------*\
| =========                 |                                                 |
| \\      /  F ield         | OpenFOAM: The Open Source CFD Toolbox           |
|  \\    /   O peration     | Version:  1.6                                   |
|   \\  /    A nd           | Web:      http://www.openfoam.org               |
|    \\/     M anipulation  |                                                 |
\*---------------------------------------------------------------------------*/

FoamFile
{
    version         2.0;
    format          ascii;

    root            "";
    case            "";
    instance        "";
    local           "";

    class           dictionary;
    object          transportProperties;
}

// * * * * * * * * * * * * * * * * * * * * * * * * * * * * * * * * * * * * * //

#include        "../setUp"


transportModel Newtonian;

// Molecular viscosity
nu              nu [0 2 -1 0 0 0 0] $nu;

// Reference temperature
TRef            TRef [0 0 0 1 0 0 0] $TRef;

// Prandtl numbers
Pr              Pr  [0 0 0 0 0 0 0] $Pr;
Prt             Prt [0 0 0 0 0 0 0] $Prt;

// Information needed for MOST k-epsilon model
// Surface roughness height
z0              z0 [0 1 0 0 0 0 0] $z0;
// Reference height
zRef            zRef [0 1 0 0 0 0 0] $windHeight;
// von Karman constant
kappa           kappa [0 0 0 0 0 0 0] $kappa;
// Reference velocity magnitude
URef            URef [0 1 -1 0 0 0 0] $U0Mag;
// Surface heat flux rate
qs              qs [0 1 -1 1 0 0 0] $qwall;

// Mixing ratio of LES-RANS bij related parameters
mix_startTime   mix_startTime [0 0 1 0 0 0 0] $mix_startTime;
mix_duration    mix_duration [0 0 1 0 0 0 0] $mix_duration;
mix_ratio_cap   mix_ratio_cap [0 0 0 0 0 0 0] $mix_ratio_cap;

// ************************************************************************* //
