/*--------------------------------*- C++ -*----------------------------------*\
| =========                 |                                                 |
| \\      /  F ield         | OpenFOAM: The Open Source CFD Toolbox           |
|  \\    /   O peration     | Version:  2.4.0                                 |
|   \\  /    A nd           | Web:      www.OpenFOAM.org                      |
|    \\/     M anipulation  |                                                 |
\*---------------------------------------------------------------------------*/
FoamFile
{
    version     2.0;
    format      ascii;
    class       dictionary;
    location    "constant";
    object      RASProperties;
}
// * * * * * * * * * * * * * * * * * * * * * * * * * * * * * * * * * * * * * //
#include        "../setUp"

RASModel        $RASModel;

turbulence      on;

printCoeffs     on;


kEpsilonCoeffs
{
    Cmu              $Cmu;
    C1               $C1;
    C2               $C2;
    sigmaEps         $sigmaEps;
    sigmak           $sigmak;
}

// kEpsilonABL from f/scm branch of SOWFA github
kEpsilonABLCoeffs
{
    Cmu              $Cmu;
    Clambda          0.075;  // Max mixing length coefficient
    Ceps1            1.52;
    Ceps2            1.833;
    sigmak           $sigmak;
    sigmaEps         $sigmaEps;
    kappa            $kappa;
    mix_verbose      $mix_verbose;
}


/* My own kEpsilonABL model that's not converging for this case
kEpsilonABLCoeffs
{
    Cmu             $Cmu;  // Turbulent eddy viscosity coefficient
    C1              $C1;  // Coefficient of the production term
    C2              $C2;
    sigmaEps        $sigmaEps;
    sigmak          $sigmak;  // Usually 1.0
    TName           "T";
    kappatName      "kappat";
}
*/


// ************************************************************************* //
